~
LAMMPS (29 Sep 2021)
# DFF generated Lammps input file

variable    	p equal 400     # corr length
variable    	s equal 5       # sample interval
variable    	d equal $p*$s   # dump interval
variable    	d equal 400*$s
variable    	d equal 400*5
variable   	t equal 1.0

variable 	kB equal 1.3806504e-23 	#J/K Boltzmann Constant
variable 	atm2Pa equal 101325.0
variable 	A2m equal 1.0e-10
variable 	fs2s equal 1.0e-15
variable 	convert equal 101325*101325*1e-15*1e-10*1e-10*1e-10

units          	real
atom_style     	full
boundary       	p p p

pair_style     	lj/cut/coul/long     10.0
pair_modify    	mix arithmetic
pair_modify    	tail yes

kspace_style   	pppm 1.0e-4
dielectric     	1.0
special_bonds  	amber

bond_style     	harmonic
angle_style    	harmonic

dihedral_style 	none
improper_style 	none

read_data      	data.cos.1000SPCE
Reading data file ...
  orthogonal box = (0.0000000 0.0000000 0.0000000) to (31.043000 31.043000 31.043000)
  reading atoms ...
  3000 atoms
  scanning bonds ...
  scanning angles ...
  reading bonds ...
  2000 bonds
  reading angles ...
  1000 angles
Finding 1-2 1-3 1-4 neighbors ...
     2 = max # of 1-2 neighbors
     1 = max # of 1-3 neighbors
     1 = max # of 1-4 neighbors
     2 = max # of special neighbors

variable 	T equal 300
variable 	P equal 1.0

velocity       	all create 300 12345 mom yes rot yes dist gaussian

neighbor 	2.0 bin
neigh_modify 	every 1 delay 0 check yes

timestep       	1.0

# Constraint ##################################

fix 		com all momentum 100 linear 1 1 1
fix 		rigid all shake 1e-4 20 0 b 1 a 1
       0 = # of size 2 clusters
       0 = # of size 3 clusters
       0 = # of size 4 clusters
    1000 = # of frozen angles
  find clusters CPU = 0.000 seconds

fix            	nve all nve
thermo		1000
run		10000
PPPM initialization ...
  G vector (1/distance) = 0.26353944
  grid = 16 16 16
  stencil order = 5
  estimated absolute RMS force accuracy = 0.032534171
  estimated relative force accuracy = 9.797569e-05
  3d grid and FFT values/proc = 4140 768
  update every 1 steps, delay 0 steps, check yes
Step Temp E_pair E_mol TotEng Press
0    450.07504    -7651.736            0   -4969.9012     9838.965
Averages over the last 6 of 11 rows, steps 5000 to 10000:
Temp E_pair E_mol TotEng Press
603.814 -8297.62 0 -4699.71 5896.72
Loop time of 32.8805 on 6 procs for 10000 steps with 3000 atoms

unfix 		nve

fix            	npt all npt temp 300 300 100 iso 1 1 1000

compute 	myRDF all rdf 200
fix 		1 all ave/time 2000 1 2000 c_myRDF[*] file water_eq.rdf mode vector

compute 	myMSD all msd
fix 		2 all ave/time 2000 1 2000 c_myMSD[*] file water_eq.msd

# Viscosity  ##################################

variable         pxy equal pxy
variable         pxz equal pxz
variable         pyz equal pyz

############################# Green-Kubo ############################

fix              SS all ave/correlate $s $p $d                  v_pxy v_pxz v_pyz type auto ave running file profile.gk.3d
fix              SS all ave/correlate 5 $p $d                  v_pxy v_pxz v_pyz type auto ave running file profile.gk.3d
fix              SS all ave/correlate 5 400 $d                  v_pxy v_pxz v_pyz type auto ave running file profile.gk.3d
fix              SS all ave/correlate 5 400 2000                  v_pxy v_pxz v_pyz type auto ave running file profile.gk.3d

variable	 convert_gk equal 101325*101325*1e-10*1e-10*1e-10*1e-15

variable         scale_gk equal (1.0/(1.3806504e-23*300)*vol*5*dt)*1.0266755625e-35
variable         vxy equal trap(f_SS[3])*3.70756954487086e-10
variable         vxz equal trap(f_SS[4])*3.70756954487086e-10
variable         vyz equal trap(f_SS[5])*3.70756954487086e-10

############################# Einstein ##############################

fix              avstress all ave/time $s $p $d v_pxy v_pxz v_pyz ave one file profile.einstein.3d
fix              avstress all ave/time 5 $p $d v_pxy v_pxz v_pyz ave one file profile.einstein.3d
fix              avstress all ave/time 5 400 $d v_pxy v_pxz v_pyz ave one file profile.einstein.3d
fix              avstress all ave/time 5 400 2000 v_pxy v_pxz v_pyz ave one file profile.einstein.3d

variable         deltasqxy equal (f_avstress[1]*$d*dt)^2
variable         deltasqxy equal (f_avstress[1]*2000*dt)^2
variable         deltasqxz equal (f_avstress[2]*$d*dt)^2
variable         deltasqxz equal (f_avstress[2]*2000*dt)^2
variable         deltasqyz equal (f_avstress[3]*$d*dt)^2
variable         deltasqyz equal (f_avstress[3]*2000*dt)^2

fix              avdeltasq all ave/time $d 1 $d v_deltasqxy v_deltasqxz v_deltasqyz ave running
fix              avdeltasq all ave/time 2000 1 $d v_deltasqxy v_deltasqxz v_deltasqyz ave running
fix              avdeltasq all ave/time 2000 1 2000 v_deltasqxy v_deltasqxz v_deltasqyz ave running

variable	 convert_ein equal 101325*101325*1e-10*1e-10*1e-10*1e-15

variable         scale equal (vol/(2.0*(1.3806504e-23*300)*dt*2000))*1.0266755625e-35
variable         einxy equal f_avdeltasq[1]*1.85378477243543e-14
variable         einxz equal f_avdeltasq[2]*1.85378477243543e-14
variable         einyz equal f_avdeltasq[3]*1.85378477243543e-14

thermo_style     custom step temp press pxy v_vxy v_vxz v_vyz v_einxy v_einxz v_einyz

thermo		 10000
run              1000000
PPPM initialization ...
  G vector (1/distance) = 0.26353944
  grid = 16 16 16
  stencil order = 5
  estimated absolute RMS force accuracy = 0.032534171
  estimated relative force accuracy = 9.797569e-05
  3d grid and FFT values/proc = 4140 768
  update every 1 steps, delay 0 steps, check yes
Step Temp Press Pxy v_vxy v_vxz v_vyz v_einxy v_einxz v_einyz
Loop time of 3601.97 on 6 procs for 1000000 steps with 3000 atoms

variable         etaxy equal v_vxy
variable         etaxz equal v_vxz
variable         etayz equal v_vyz

variable         eta equal (0.000583527006379723+0.000688869791430483+0.000646659602866449)/3.0

variable         etaxy2 equal v_einxy
variable         etaxz2 equal v_einxz
variable         etayz2 equal v_einyz

variable         eta2 equal (0.000500120629106491+0.000541381037074941+0.000516920348378944)/3.0

GKvisco= 0.000639685466892218
EINvisco= 0.000519474004853459
