~
LAMMPS (29 Sep 2021)
# Muller-Plathe

units          	real
atom_style     	full
boundary       	p p p

pair_style     	lj/cut/coul/long     10.0
pair_modify    	mix arithmetic
pair_modify    	tail yes

kspace_style   	pppm 1.0e-4
dielectric     	1.0
special_bonds  	amber

bond_style     	harmonic
angle_style    	harmonic

dihedral_style 	none
improper_style 	none

read_data      	data.cos.1000SPCE
Reading data file ...
  orthogonal box = (0.0000000 0.0000000 0.0000000) to (31.043000 31.043000 31.043000)
  reading atoms ...
  3000 atoms
  scanning bonds ...
  scanning angles ...
  reading bonds ...
  2000 bonds
  reading angles ...
  1000 angles
Finding 1-2 1-3 1-4 neighbors ...
     2 = max # of 1-2 neighbors
     1 = max # of 1-3 neighbors
     1 = max # of 1-4 neighbors
     2 = max # of special neighbors

variable 	T equal 300
variable 	P equal 1.0

velocity       	all create 300 12345 mom yes rot yes dist gaussian

timestep       	1.0

# Constraint ##################################

#fix 		com all momentum 100 linear 1 1 1
fix 		rigid all shake 1e-4 20 0 b 1 a 1
       0 = # of size 2 clusters
       0 = # of size 3 clusters
       0 = # of size 4 clusters
    1000 = # of frozen angles
  find clusters CPU = 0.000 seconds

# equilibration run
fix             NVT all nvt temp $T $T 100
fix             NVT all nvt temp 300 $T 100
fix             NVT all nvt temp 300 300 100
thermo          1000
run	        10000
PPPM initialization ...
  G vector (1/distance) = 0.26353944
  grid = 16 16 16
  stencil order = 5
  estimated absolute RMS force accuracy = 0.032534171
  estimated relative force accuracy = 9.797569e-05
  3d grid and FFT values/proc = 4140 768
  update every 1 steps, delay 10 steps, check yes
Step Temp E_pair E_mol TotEng Press
0    450.07504    -7651.736            0   -4969.9012     9838.965
Averages over the last 6 of 11 rows, steps 5000 to 10000:
Temp E_pair E_mol TotEng Press
303.337 -11170.3 0 -9362.85 -69.9893
Loop time of 31.7401 on 6 procs for 10000 steps with 3000 atoms

unfix		NVT
reset_timestep	0

fix		NPT all npt temp $T $T 100 iso $P $P 1000
fix		NPT all npt temp 300 $T 100 iso $P $P 1000
fix		NPT all npt temp 300 300 100 iso $P $P 1000
fix		NPT all npt temp 300 300 100 iso 1 $P 1000
fix		NPT all npt temp 300 300 100 iso 1 1 1000

# Viscosity  ##################################

fix		1 all viscosity 50 x z 20

compute         layers all chunk/atom bin/1d z center 0.05
fix		2 all ave/chunk 20 50 1000 layers vx file profile.mp.3d

# equilibration run

variable	dVx equal f_2[11][3]-f_2[1][3]

thermo          1000
thermo_style	custom step temp epair etotal press f_1 v_dVx
run		20000
PPPM initialization ...
  G vector (1/distance) = 0.26353944
  grid = 16 16 16
  stencil order = 5
  estimated absolute RMS force accuracy = 0.032534171
  estimated relative force accuracy = 9.797569e-05
  3d grid and FFT values/proc = 4140 768
Step Temp E_pair TotEng Press f_1 v_dVx
0    303.88893   -11271.836   -9461.0718    256.88969            0            0
Averages over the last 11 of 21 rows, steps 10000 to 20000:
Temp E_pair TotEng Press f_1 v_dVx
298.201 -11161.3 -9384.42 220.144 -18.5661 -0.000791262
Loop time of 76.9696 on 6 procs for 20000 steps with 3000 atoms

# data gathering run
# reset fix viscosity to zero flux accumulation

unfix		1
fix		1 all viscosity 50 x z 20

variable	visc equal -(f_1/(2*(step*1.0-20000)*lx*ly+1.0e-10))/(v_dVx/(lz/2))

fix		vave all ave/time 1000 1 1000 v_visc ave running start 21000
variable	visco equal f_vave

thermo_style	custom step temp f_1 v_dVx v_visc f_vave

run	        500000
PPPM initialization ...
  G vector (1/distance) = 0.26368466
  grid = 16 16 16
  stencil order = 5
  estimated absolute RMS force accuracy = 0.032368517
  estimated relative force accuracy = 9.7476827e-05
  3d grid and FFT values/proc = 4140 768
Step Temp f_1 v_dVx v_visc f_vave
Loop time of 2027.04 on 6 procs for 500000 steps with 3000 atoms

MPvisco = 0.102279251397587
